/*--------------------------------*- C++ -*----------------------------------*\
| =========                 |                                                 |
| \\      /  F ield         | OpenFOAM: The Open Source CFD Toolbox           |
|  \\    /   O peration     | Version:  v1606+                                |
|   \\  /    A nd           | Web:      www.OpenFOAM.com                      |
|    \\/     M anipulation  |                                                 |
\*---------------------------------------------------------------------------*/
FoamFile
{
    version     2.0;
    format      ascii;
    class       volScalarField;
    location    "0";
    object      nut;
}
// * * * * * * * * * * * * * * * * * * * * * * * * * * * * * * * * * * * * * //

dimensions      [0 2 -1 0 0 0 0];

internalField   uniform 0;

boundaryField
{
    WALL
    {
        type            nutkWallFunction;
        value           uniform 0;
    }
    INLET
    {
        type            calculated;
        value           $internalField;
    }
    OUTLET
    {
        type            calculated;
        value           $internalField;
    }
    SYMMETRY-SIDE-1
    {
        type            wedge;
    }
    SYMMETRY-SIDE-2
    {
        type            wedge;
    }
}


// ************************************************************************* //
