/*--------------------------------*- C++ -*----------------------------------*\
| =========                 |                                                 |
| \\      /  F ield         | OpenFOAM: The Open Source CFD Toolbox           |
|  \\    /   O peration     | Version:  v1606+                                |
|   \\  /    A nd           | Web:      www.OpenFOAM.com                      |
|    \\/     M anipulation  |                                                 |
\*---------------------------------------------------------------------------*/
FoamFile
{
    version     2.0;
    format      ascii;
    class       volScalarField;
    object      T;
}
// * * * * * * * * * * * * * * * * * * * * * * * * * * * * * * * * * * * * * //

dimensions      [0 0 0 1 0 0 0];

internalField   uniform 1.675;

boundaryField
{
    WALL
    {
        type            zeroGradient;
    }
    INLET
    {
        type            fixedValue;
		value			$internalField;
    }
    OUTLET
    {
        type            zeroGradient;
    }
    SYMMETRY-SIDE-1
    {
        type            wedge;
    }
    SYMMETRY-SIDE-2
    {
        type            wedge;
    }
}

// ************************************************************************* //
