/*--------------------------------*- C++ -*----------------------------------*\
| =========                 |                                                 |
| \\      /  F ield         | OpenFOAM: The Open Source CFD Toolbox           |
|  \\    /   O peration     | Version:  v1606+                                |
|   \\  /    A nd           | Web:      www.OpenFOAM.com                      |
|    \\/     M anipulation  |                                                 |
\*---------------------------------------------------------------------------*/
FoamFile
{
    version     2.0;
    format      ascii;
    class       dictionary;
    location    "constant";
    object      transportProperties;
}
// * * * * * * * * * * * * * * * * * * * * * * * * * * * * * * * * * * * * * //

simplifiedSuperFluid  Pietrowicz;

transportModel  HeliumConstRho;

HeliumConstCoeffs
{
	// Mean helium density
//	rhoHe             rhoHe    [1 -3 0 0 0 0 0]  147.0;
	TMean            [0 0 0 1 0 0 0] 1.8;
}
HeliumConstRhoCoeffs
{
	// Mean helium density
//	rhoHe             rhoHe    [1 -3 0 0 0 0 0]  147.0;
}
superFluidWallCoeffs
{
	// Mean helium density
//	rhoHe             rhoHe    [1 -3 0 0 0 0 0]  147.0;
}

//rho             147.0; // for turbulentWallHeatFluxTemperature
HeliumConstRhoCoeffs
{
}
HeliumCoeffs
{
}

KitamuraCoeffs
{
}
PietrowiczCoeffs
{
	GM		on;
}

// Laminar Prandtl number
//Pr              [0 0 0 0 0 0 0] 1;// solver crashes if it is 0

// Turbulent Prandtl number
Prt             [0 0 0 0 0 0 0] 0.7;

// Reference temperature
TRef            [0 0 0 1 0 0 0] 1.8;

// ************************************************************************* //
